#
# Generated by PyRED version SEP-2015
#     http://q4md-forcefieldtools.org
#
@<TRIPOS>MOLECULE
F00
    68    67     1     0     1
SMALL
USER_CHARGES
@<TRIPOS>ATOM
   1 C01    2.738226  -1.283516   0.971891 C    1   F00  0.6984  0.0000 ****
   2 O03    2.141455  -0.237527   0.987587 O    1   F00 -0.5102  0.0000 ****
   3 C02    0.786165  -2.679391   1.490080 CT   1   F00 -0.0174  0.0000 ****
   4 H07    0.403510  -1.744297   1.868258 H1   1   F00  0.1220  0.0000 ****
   5 H03    0.706184  -3.416200   2.278926 H1   1   F00  0.1220  0.0000 ****
   6 C06   -4.168657  -2.041464  -0.880020 C    1   F00  0.6179  0.0000 ****
   7 O08   -3.430067  -1.111102  -1.079018 O    1   F00 -0.6745  0.0000 ****
   8 C07   -5.679245  -1.912807  -0.884660 CT   1   F00  0.1033  0.0000 ****
   9 H13   -6.002845  -2.079712  -1.910304 HC   1   F00 -0.0080  0.0000 ****
  10 H17   -6.122346  -2.706164  -0.288978 HC   1   F00 -0.0080  0.0000 ****
  11 C08   -6.164931  -0.545609  -0.402904 CT   1   F00  0.0384  0.0000 ****
  12 H15   -5.688062   0.224359  -0.998110 HC   1   F00 -0.0213  0.0000 ****
  13 H18   -5.836596  -0.390254   0.622136 HC   1   F00 -0.0213  0.0000 ****
  14 C09   -7.686008  -0.407088  -0.481597 CT   1   F00  0.0568  0.0000 ****
  15 H16   -8.155047  -1.191530   0.110011 HC   1   F00 -0.0744  0.0000 ****
  16 H20   -8.009344  -0.565675  -1.508959 HC   1   F00 -0.0744  0.0000 ****
  17 C10   -8.186100   0.955814   0.000455 CT   1   F00  0.2209  0.0000 ****
  18 H22   -7.715956   1.739600  -0.590911 HC   1   F00 -0.0297  0.0000 ****
  19 H23   -7.863193   1.113861   1.028173 HC   1   F00 -0.0297  0.0000 ****
  20 C11   -9.706565   1.103111  -0.080349 CT   1   F00 -0.1307  0.0000 ****
  21 H21  -10.175639   0.318032   0.510191 HC   1   F00  0.0450  0.0000 ****
  22 H24  -10.028687   0.944646  -1.108036 HC   1   F00  0.0450  0.0000 ****
  23 C13  -10.207503   2.465568   0.401755 CT   1   F00 -0.1131  0.0000 ****
  24 H27   -9.738609   3.251221  -0.188782 HC   1   F00  0.0509  0.0000 ****
  25 H31   -9.885722   2.624501   1.429899 HC   1   F00  0.0509  0.0000 ****
  26 C15  -11.727836   2.614403   0.321244 CT   1   F00 -0.0433  0.0000 ****
  27 H25  -12.197752   1.830968   0.911912 HC   1   F00  0.0330  0.0000 ****
  28 H33  -12.050752   2.457208  -0.705637 HC   1   F00  0.0330  0.0000 ****
  29 N02    2.218323  -2.477962   1.221501 N    1   F00 -0.6964  0.0000 ****
  30 H04    2.790418  -3.289742   1.139360 H    1   F00  0.4108  0.0000 ****
  31 N07   -3.682507  -3.288987  -0.661697 N    1   F00 -0.6426  0.0000 ****
  32 H14   -4.316105  -4.043696  -0.536388 H    1   F00  0.3851  0.0000 ****
  33 N2     6.242812   1.581206  -1.775434 NT   1   F00 -0.8341  0.0000 ****
  34 H29    6.506855   1.395159  -2.727131 H    1   F00  0.4739  0.0000 ****
  35 C03    0.017513  -3.113919   0.245166 CT   1   F00 -0.1532  0.0000 ****
  36 H06    0.369535  -4.092379  -0.077639 HC   1   F00  0.1178  0.0000 ****
  37 H08    0.234414  -2.415380  -0.558701 HC   1   F00  0.1178  0.0000 ****
  38 C04   -1.492530  -3.136226   0.487220 CT   1   F00 -0.1306  0.0000 ****
  39 H05   -1.736883  -3.800247   1.313049 HC   1   F00  0.0902  0.0000 ****
  40 H10   -1.819852  -2.141241   0.763371 HC   1   F00  0.0902  0.0000 ****
  41 C4     4.750131   1.715048  -1.698164 CT   1   F00 -0.1372  0.0000 ****
  42 H30    4.346429   1.826381  -2.694942 H1   1   F00  0.1763  0.0000 ****
  43 H44    4.516271   2.625392  -1.167906 H1   1   F00  0.1763  0.0000 ****
  44 C05   -2.267151  -3.563429  -0.762485 CT   1   F00  0.0041  0.0000 ****
  45 H09   -2.142410  -4.625514  -0.940399 H1   1   F00  0.0895  0.0000 ****
  46 H11   -1.878538  -3.037974  -1.625911 H1   1   F00  0.0895  0.0000 ****
  47 N6     4.740410   0.062115   0.233504 NT   1   F00 -0.3994  0.0000 ****
  48 C8     4.075715   0.502361  -1.043188 CT   1   F00 -0.0337  0.0000 ****
  49 H32    3.037470   0.727159  -0.858003 H1   1   F00  0.1396  0.0000 ****
  50 H51    4.120068  -0.343349  -1.720792 H1   1   F00  0.1396  0.0000 ****
  51 N10    7.058586   1.695503   0.966987 NT   1   F00 -0.8341  0.0000 ****
  52 H28    7.942590   1.708001   1.444560 H    1   F00  0.4739  0.0000 ****
  53 C12    4.247203  -1.273639   0.665446 CT   1   F00 -0.0902  0.0000 ****
  54 H01    4.792590  -1.569723   1.554488 H1   1   F00  0.0837  0.0000 ****
  55 H02    4.471202  -1.994510  -0.112486 H1   1   F00  0.0837  0.0000 ****
  56 C14    4.635940   1.091573   1.330309 CT   1   F00 -0.0337  0.0000 ****
  57 H36    3.965439   0.743334   2.096890 H1   1   F00  0.1396  0.0000 ****
  58 H56    4.172173   1.976265   0.925025 H1   1   F00  0.1396  0.0000 ****
  59 C16    5.987967   1.425253   1.976266 CT   1   F00 -0.1372  0.0000 ****
  60 H38    5.862817   2.277374   2.632618 H1   1   F00  0.1763  0.0000 ****
  61 H58    6.335611   0.596578   2.581975 H1   1   F00  0.1763  0.0000 ****
  62 C18    6.896061   2.976574   0.207690 CT   1   F00 -0.1111  0.0000 ****
  63 H40    7.654351   3.680849   0.519827 H1   1   F00  0.1847  0.0000 ****
  64 H60    5.942428   3.409248   0.470169 H1   1   F00  0.1847  0.0000 ****
  65 C20    7.007529   2.776570  -1.311326 CT   1   F00 -0.1111  0.0000 ****
  66 H42    6.660978   3.669370  -1.816343 H1   1   F00  0.1847  0.0000 ****
  67 H62    8.040907   2.617863  -1.593947 H1   1   F00  0.1847  0.0000 ****
  68 Zn2    6.666161   0.220335  -0.352053 Zn   1   F00  1.3505  0.0000 ****
@<TRIPOS>BOND
    1     1     2 1
    2     1    29 1
    3     1    53 1
    4     3     4 1
    5     3     5 1
    6     3    29 1
    7     3    35 1
    8     6     7 1
    9     6     8 1
   10     6    31 1
   11     8     9 1
   12     8    10 1
   13     8    11 1
   14    11    12 1
   15    11    13 1
   16    11    14 1
   17    14    15 1
   18    14    16 1
   19    14    17 1
   20    17    18 1
   21    17    19 1
   22    17    20 1
   23    20    21 1
   24    20    22 1
   25    20    23 1
   26    23    24 1
   27    23    25 1
   28    23    26 1
   29    26    27 1
   30    26    28 1
   31    29    30 1
   32    31    32 1
   33    31    44 1
   34    33    34 1
   35    33    41 1
   36    33    65 1
   37    35    36 1
   38    35    37 1
   39    35    38 1
   40    38    39 1
   41    38    40 1
   42    38    44 1
   43    41    42 1
   44    41    43 1
   45    41    48 1
   46    44    45 1
   47    44    46 1
   48    47    48 1
   49    47    53 1
   50    47    56 1
   51    48    49 1
   52    48    50 1
   53    51    52 1
   54    51    59 1
   55    51    62 1
   56    53    54 1
   57    53    55 1
   58    56    57 1
   59    56    58 1
   60    56    59 1
   61    59    60 1
   62    59    61 1
   63    62    63 1
   64    62    64 1
   65    62    65 1
   66    65    66 1
   67    65    67 1
@<TRIPOS>SUBSTRUCTURE
      1 F00               1 ****               0 ****  ****
@<TRIPOS>HEADTAIL
C15 1
0 0
@<TRIPOS>RESIDUECONNECT
1 C15 0 0 0 0 0
